# opt freq=noraman 6-311g(d,p) scrf=(cpcm,solvent=water)  m062x temperature=373

4tetramerPrism.SiAl.geom.com

0 1
 Si  -2.411493  -0.450922  -1.426237
  O  -1.975086  -1.865369  -0.744506
  O   0.875286  -2.533328  -0.768420
  O  -1.230055   0.066613  -2.419813
 Si   2.095434  -1.527578  -1.158747
  O   1.621681  -0.422766  -2.252346
  O   0.602795   1.381174  -4.213189
  H   0.929032   0.851722  -4.951301
  O  -3.812676  -0.653154  -2.280269
  H  -3.768961  -1.274542  -3.010147
  O   3.303571  -2.387154  -1.890565
  H   3.646636  -3.130468  -1.390076
 Si   0.664498   2.750038  -0.069380
  O   0.549284   2.228030  -1.609567
  O  -0.771127   2.580135   0.681012
  O  -2.754827   0.660354  -0.290174
  O  -3.407393   2.372556   1.756979
  H  -3.316794   3.181777   2.275251
  O   1.104091   4.344030  -0.048886
  H   0.435883   4.959608  -0.357786
  O   1.847413   1.958796   0.713300
  O   1.149556  -0.128421   2.587947
 Si  -0.335537  -0.776410   2.707049
  O  -1.490470   0.305327   2.319884
  O  -0.498215  -1.216585   4.293092
  H  -1.342540  -1.605568   4.530616
  O  -0.476009  -2.090889   1.755767
  O   3.898521   0.616846   2.179864
  H   4.183850   1.420612   2.631838
  O   2.669056  -0.803320   0.183862
  O  -1.173997  -4.332984   0.105474
  H  -0.605892  -5.100649   0.241814
 Al  -0.618736  -2.528742   0.094152
 Al   0.357810   0.735059  -2.456352
 Al  -1.957296   1.385401   1.059545
 Al   2.221485   0.395870   1.341718
  H   0.879933   2.298814  -4.332132
  H  -1.944857  -4.591072  -0.415983
  H   4.667583   0.179647   1.791980
  H  -4.238100   2.400542   1.264961

