# opt freq=noraman 6-311g(d,p) scrf=(cpcm,solvent=water)  m062x temperature=373

5pentamerPrism.SiAl.geom.com

0 1
 Si   2.243890  -1.802021   1.619875
  O   2.452286  -0.270304   2.129103
  O   2.525599   1.754543   0.018717
  O   2.398676  -1.877720   0.005937
 Si   2.391006   1.665325  -1.597091
  O   2.413114   0.127175  -2.111731
  O   3.158831  -2.449595  -2.711188
  H   3.818691  -1.978755  -3.235866
  O   3.368604  -2.781710   2.336116
  H   4.278060  -2.627384   2.071804
  O   3.289826   2.238672   2.747146
  H   3.803564   1.708210   3.369655
  O   0.541934   1.952786   2.129923
  O   1.028436   2.421301  -2.073994
  O   3.697956   2.387463  -2.310467
  H   3.844676   3.304935  -2.070620
 Si  -0.879591   2.575665   1.676778
  O  -0.883901   2.971350   0.108483
  O  -1.288280   4.023240  -2.380469
  H  -0.991413   4.348667  -3.239285
  O  -1.267556   3.883383   2.603365
  H  -0.662982   4.627084   2.552986
 Si  -1.013269  -2.562846  -1.682787
  O   0.452649  -2.059118  -2.145401
  O  -1.057744  -2.891021  -0.101167
  O   0.804335  -2.380573   2.101192
  O  -1.425747  -3.868864   2.581682
  H  -0.804195  -4.284544   3.193206
  O  -1.481485  -3.876008  -2.563176
  H  -0.941381  -4.662898  -2.462792
 Si  -2.658435   0.059274  -1.664709
  O  -2.148565  -1.439196  -2.067554
  O  -2.989937   0.083616  -0.065809
 Si  -2.764453   0.102547   1.546249
  O  -1.846899  -1.125203   2.040100
  O  -4.279127   0.015763   2.180064
  H  -4.337825  -0.047482   3.136250
  O  -2.094620   1.521373   1.999422
  O  -4.034207   0.383437  -2.502519
  H  -4.778575  -0.204739  -2.356178
  O  -1.573882   1.173479  -2.065051
 Al  -0.819316  -2.415495   1.533272
 Al   2.066496   1.330030   1.617152
 Al   1.977311  -1.460559  -1.604360
 Al  -0.598067   2.486574  -1.517746
  H  -1.581830   4.767965  -1.839879
  H   3.118939   3.105374   3.136063
  H   2.859254  -3.224487  -3.203027
  H  -2.318957  -3.936450   2.941338

