# opt freq=noraman 6-311g(d,p) scrf=(cpcm,solvent=water)  m062x temperature=373

6hexamerPrism.SiAl.geom.com

0 1
  O   0.999901   1.413841  -1.543705
 Si   2.616575   1.358969  -1.685575
  O   3.355244   1.876574  -0.335784
  O   0.112365   3.613244   0.057444
 Si   0.156875   2.869449   1.503416
  O   1.664892   2.510849   1.961081
  O  -0.564230   3.862207   2.654889
  H  -0.254783   4.764898   2.763214
  O   0.717873   3.868655  -2.758744
  H   1.604011   3.510412  -3.040838
  O   2.915703   2.469977  -2.912528
  H   3.820661   2.743505  -3.082504
  O   3.116428  -0.115689  -2.118029
  O   3.172963  -0.022558   1.837899
  O   4.370910   2.513666   2.281015
  H   5.195086   2.103443   2.570952
  O   2.990072  -2.045178   0.060876
 Si   2.916057  -1.612594   1.625739
  O   4.139972  -2.460258   2.355701
  H   4.234512  -2.315920   3.299744
  O   3.953147  -2.807301  -2.510892
  H   4.828770  -3.037944  -2.177422
  O  -0.813065   1.565785   1.507501
  O  -3.298596   1.968052   0.062146
 Si  -3.048567   1.749671  -1.533221
  O  -1.696406   2.529271  -2.002909
  O  -4.338315   2.341764  -2.383562
  H  -4.521634   3.276213  -2.264569
  O  -2.897921   2.746347   2.808294
  H  -2.113439   3.355335   2.919411
 Si  -2.933493  -1.640293   1.791624
  O  -3.151395  -0.065882   2.147544
  O  -3.074952  -1.905131   0.193607
  O  -2.960613   0.175651  -1.903363
  O  -4.313846  -2.326593  -2.174423
  H  -4.730015  -2.098186  -3.014432
  O  -4.138805  -2.536789   2.488445
  H  -4.134017  -2.560850   3.447839
 Si  -0.097860  -2.693593  -1.544173
  O  -0.042920  -1.977009  -0.095065
  O  -1.468726  -2.263112  -2.291243
  O  -0.145578  -4.341347  -1.181086
  H  -0.122353  -4.993553  -1.885256
  O  -1.491393  -2.131683   2.381541
  O   0.026770  -4.340358   1.369790
  H  -0.063551  -4.606129   0.408628
  O   1.491822  -2.026401   2.311061
  O   1.269011  -2.373710  -2.355901
 Al  -2.778397  -1.469641  -1.448919
 Al  -2.549273   1.418915   1.519626
 Al  -0.086483   2.772806  -1.454832
 Al   3.006077   1.608954   1.340562
 Al   2.701012  -1.715545  -1.603900
 Al  -0.004847  -2.457523   1.568053
  H  -4.993700  -2.613323  -1.551100
  H  -3.724448   3.234569   2.887829
  H   0.238163   4.236443  -3.509103
  H   4.125297   3.211027   2.902485
  H   3.626962  -3.519051  -3.076201
  H  -0.497385  -4.922031   1.931514

