# opt freq=noraman 6-311g(d,p) scrf=(cpcm,solvent=water) nosymm  m062x temperature=373

7heptamerPrism.SiAl.geom.com

0 1
  O   0.995324  -3.628273   0.175144
  O   4.279549  -2.058856   0.497778
  O   2.716491   3.979761   0.338357
  O  -2.420873  -2.210674   0.020844
  O   4.918631   1.315079   0.305076
  O  -3.089167   1.146625   0.326240
  O  -0.530056  -2.672021   2.154677
  O   4.081137  -0.331414   2.542072
  O   2.424920  -2.353402  -1.695975
  O  -1.516132   2.061253   2.310074
  O  -2.378151  -0.442827  -1.993897
  O   3.653969   2.293249  -1.853445
  O   1.990830  -1.837129   1.873150
  O   4.469029  -0.250771  -1.804520
  O   3.398757   2.519729   2.490602
  O  -0.163438  -1.784624  -1.353896
  O  -1.826972   2.438529  -1.962308
  O  -2.428021  -0.443842   2.361882
 Si   0.954329  -3.108696   1.733957
 Si   3.635740  -1.761085   1.949353
 Si   2.518117   3.766548   1.938027
 Si  -1.809954  -1.840695  -1.428372
 Si   4.787999   1.268484  -1.311534
 Si  -2.749495   1.087154   1.912756
 Si   0.987689  -2.961874  -1.328001
  O   5.995553   1.592284   2.970125
  H   6.129567   2.434947   3.421718
  O   3.995509  -2.999162   2.996409
  H   4.914283  -3.259167   3.094814
  O   3.102560   5.096529   2.737626
  H   2.703954   5.933537   2.490054
  O   1.488146  -4.318284   2.706764
  H   2.404481  -4.193219   2.994093
  O  -4.055208   1.646179   2.768694
  H  -4.888300   1.207266   2.582992
  O  -3.296509  -3.037047   2.613312
  H  -3.195335  -3.979073   2.796746
  O   0.568421  -4.118196  -2.414619
  H  -0.368935  -4.083996  -2.656028
  O  -2.072500  -3.080191  -2.501316
  H  -2.971034  -3.393854  -2.626664
  O  -4.386762   1.517741  -2.235934
  H  -4.438026   2.304121  -2.794507
  O   2.197704   4.731925  -2.380341
  H   2.702474   5.548883  -2.303928
  O   6.208477   1.779666  -1.994717
  H   6.997846   1.328071  -1.688345
  O   5.192923  -2.870143  -2.085453
  H   5.062421  -3.804958  -2.285848
  O  -1.017389   3.927110   0.114301
  O   0.791457   2.627644  -1.382928
  O   0.947705   3.558051   2.301177
 Si  -0.649830   3.371865  -1.363886
  O  -1.556286   4.932640   2.544566
  H  -1.843854   5.645586   1.959833
  O  -0.396046   4.682696  -2.388712
  H  -1.059105   5.375949  -2.433758
 Al  -2.037108  -1.974901   1.688918
 Al  -2.763940   1.118297  -1.354844
 Al  -0.671975   3.449877   1.744085
 Al   2.398346   3.270670  -1.200323
 Al   4.431897   1.257972   1.946841
 Al   3.959945  -1.765161  -1.173737
  H  -3.858872  -2.636221   3.287984
  H  -4.995338   0.847575  -2.570813
  H  -1.379269   5.290456   3.422838
  H   1.232255   4.934344  -2.535174
  H   6.370750   0.883148   3.507543
  H   5.782298  -2.478856  -2.742652

