# opt freq=noraman 6-311g(d,p) scrf=(cpcm,solvent=water) nosymm  m062x temperature=373

8octamerPrism.SiAl.geom.com

0 1
  O   0.958358  -3.510472  -0.112405
  O   4.314177  -2.139005   0.224364
  O   3.855538   4.320407   0.548128
  O  -2.172773  -2.384280   0.301956
  O   5.503657   1.072091   0.391384
  O  -3.804342   0.880767   0.003261
  O  -0.349913  -2.404228   2.263508
  O   4.245593  -0.617597   2.415160
  O   2.067595  -1.460823  -1.456490
  O  -2.732943   2.570621   2.144741
  O  -2.784720  -0.622675  -1.988682
  O   4.628419   2.575145  -1.669628
  O   2.549701  -2.665635   2.196535
  O   4.634054  -0.085889  -1.849202
  O   3.282928   2.104813   1.964632
  O  -0.425129  -2.279805  -2.046418
  O  -2.731862   2.042314  -2.145932
  O  -1.695106  -0.140026   1.696687
 Si   4.031189  -2.119668   1.825760
 Si   3.315824   3.725899   1.955535
 Si   5.389744   1.215197  -1.224308
 Si  -1.734296  -1.760199   1.734174
 Si  -3.557312   0.748639  -1.598875
 Si   1.040530  -2.713796  -1.522634
  O   5.693736   1.773474   3.171781
  H   5.416905   2.718561   3.337313
  O   5.075172  -3.168668   2.573640
  H   6.005416  -3.023418   2.387826
  O   4.463643   4.059599   3.144000
  H   4.773425   4.962688   3.248095
  O   0.774620  -4.904807   2.346218
  H   1.094275  -5.726980   1.954492
  O  -4.211981   0.210714   2.767262
  H  -3.923536  -0.710511   3.015556
  O  -2.965926  -2.063003   2.843704
  H  -3.279826  -2.964152   2.952285
  O   1.779170  -3.722400  -2.654263
  H   1.440505  -4.614151  -2.767081
  O  -3.028871  -3.482542  -2.012849
  H  -3.279574  -4.162804  -1.374499
  O  -5.020305   0.655794  -2.372708
  H  -5.613312   1.394713  -2.219921
  O   4.808889   5.435406  -1.852646
  H   5.483161   5.904813  -1.345656
  O   6.912562   1.338317  -1.867849
  H   7.518288   0.633749  -1.627886
  O   4.204495  -2.812945  -2.563428
  H   3.382956  -3.317042  -2.819455
  O  -2.605329   4.086168  -0.045187
  O   2.300136   4.292473  -1.937445
  O   1.894028   4.373243   2.369903
 Si  -2.453891   4.070259   1.573345
  O  -3.546185   5.131518   2.229370
  H  -4.455289   5.006845   1.948512
  O  -2.275112   4.776092  -2.812934
  H  -1.442946   5.295468  -2.992921
  O   0.771591   5.480202  -0.088338
  O  -0.221021   3.441815  -1.539524
  O  -1.002630   4.599745   2.064222
 Si   0.795933   4.704268  -1.511795
  O   0.724835   6.847939   2.403639
  H   0.027246   7.513600   2.442125
  O   0.133529   5.723450  -2.680639
  H   0.471006   6.619563  -2.755654
 Al   0.554531   5.142654   1.590996
 Al   3.806482   3.985208  -1.144693
 Al   4.598633   0.970035   1.856815
 Al   3.802316  -1.481699  -1.284975
 Al   1.035528  -3.187229   1.582772
 Al  -1.998471  -2.018662  -1.378213
 Al  -3.013644   0.988039   1.532022
 Al  -1.963667   3.444060  -1.510685
  H   1.312816   6.957780   3.161397
  H   4.376799   6.055469  -2.453773
  H   6.654019   1.696964   3.186870
  H   4.749594  -2.627853  -3.336097
  H  -0.040412  -5.080234   2.833255
  H  -2.958712  -3.878193  -2.890245
  H  -4.540144   0.689375   3.536288
  H  -2.744594   4.583302  -3.632006

