# pbepbe/3-21g/auto

Title Card Required

0 1
 O                  7.50633750    0.76758795   10.15241213
 O                  5.76346602    1.27639819   12.46393037
 O                  3.80641370    1.08161927    0.36789610
 O                  1.72145340    0.97011827   12.28271587
 O                  2.45687431    1.07804170    9.57143232
 O                  4.94917853    1.17423863   10.33322659
 O                  7.34179858   17.06601221    9.76438109
 O                  6.06852357   16.78894913   12.39979190
 O                  3.98076090   16.79769431    0.39683174
 O                  1.90020432   16.38806232   12.10590173
 O                  2.26271038   16.95451122    9.78824966
 O                  4.84469031   16.76827872   10.16321299
 O                  6.32153719   19.06647122   11.10435494
 O                  1.74967723   18.84744431   10.77512861
 O                  8.07201509    2.63508053    8.41680662
 O                  8.61867663    0.15463061    7.47593136
 O                  7.97173043   17.31028088    7.60434163
 O                  3.71533681    2.37610407    8.22719146
 O                  3.70612904   19.87540000    8.09904787
 O                  3.78359444   17.28106404    7.98850570
 O                 19.99928513    1.23644863   10.48697222
 O                  0.04223566   16.43178820   10.28895638
 Si                 8.51038520    0.98025473    8.92951430
 Si                 6.23066046    0.54478471   11.13529075
 Si                 5.36412886    1.34655835    0.45390298
 Si                 2.41023493    1.38511663    0.47937168
 Si                 1.48485364    0.78567456   10.73792563
 Si                 4.52582109    1.17523240    8.83897373
 Si                 8.88890478   16.75873853    8.95311619
 Si                 6.47566732   17.11470694   10.87353648
 Si                 5.38454610   16.40714270    0.54324346
 Si                 2.22467827   16.74899958    0.51017414
 Si                 1.29409259   17.45079995   11.10915533
 Si                 3.73375236   16.15452637    9.38435069
 O                  2.50211250   19.10781205    3.48521213
 O                  4.24498398   18.59900181    5.79673037
 O                  6.20203630   18.79378073    7.03509610
 O                  8.28699660   18.90528173    5.61551587
 O                  7.55157569   18.79735830    2.90423232
 O                  5.05927147   18.70116137    3.66602659
 O                  2.66665142    2.80938779    3.09718109
 O                  3.93992643    3.08645087    5.73259190
 O                  6.02768910    3.07770569    7.06403174
 O                  8.10824568    3.48733768    5.43870173
 O                  7.74573962    2.92088878    3.12104966
 O                  5.16375969    3.10712128    3.49601299
 O                  3.68691281    0.80892878    4.43715494
 O                  8.25877277    1.02795569    4.10792861
 O                  1.93643491   17.24031947    1.74960662
 O                  1.38977337   19.72076939    0.80873136
 O                  2.03671957    2.56511912    0.93714163
 O                  6.29311319   17.49929593    1.55999146
 O                  6.30232096    0.00000000    1.43184787
 O                  6.22485556    2.59433596    1.32130570
 O                 10.02606487   18.63895137    3.81977222
 O                  9.96621434    3.44361180    3.62175638
 Si                 1.49806480   18.89514527    2.26231430
 Si                 3.77778954   19.33061529    4.46809075
 Si                 4.64432114   18.52884165    7.12110298
 Si                 7.59821507   18.49028337    7.14657168
 Si                 8.52359636   19.08972544    4.07072563
 Si                 5.48262891   18.70016760    2.17177373
 Si                 1.11954522    3.11666147    2.28591619
 Si                 3.53278268    2.76069306    4.20633648
 Si                 4.62390390    3.46825730    7.21044346
 Si                 7.78377173    3.12640042    7.17737414
 Si                 8.71435742    2.42460005    4.44195533
 Si                 6.27469764    3.72087363    2.71715069
 O                 12.51056250   10.70528795    3.18198787
 O                 14.25343398   11.21409819    0.87046963
 O                 16.21048630   11.01931927   12.96650390
 O                 18.29544660   10.90781827    1.05168413
 O                 17.56002569   11.01574170    3.76296768
 O                 15.06772147   11.11193863    3.00117341
 O                 12.67510142    7.12831221    3.57001891
 O                 13.94837643    6.85124913    0.93460810
 O                 16.03613910    6.85999431   12.93756826
 O                 18.11669568    6.45036232    1.22849827
 O                 17.75418962    7.01681122    3.54615034
 O                 15.17220969    6.83057872    3.17118701
 O                 13.69536281    9.12877122    2.23004506
 O                 18.26722277    8.90974431    2.55927139
 O                 11.94488491   12.57278053    4.91759338
 O                 11.39822337   10.09233061    5.85846864
 O                 16.30156319   12.31380407    5.10720854
 O                 16.31077096    9.93770000    5.23535213
 O                 16.23330556    7.34336404    5.34589430
 O                  0.01761487   11.17414863    2.84742778
 O                 19.97466434    6.49408820    3.04544362
 Si                11.50651480   10.91795473    4.40488570
 Si                13.78623954   10.48248471    2.19910925
 Si                14.65277114   11.28425835   12.88049702
 Si                17.60666507   11.32281663   12.85502832
 Si                18.53204636   10.72337456    2.59647437
 Si                15.49107891   11.11293240    4.49542627
 Si                11.12799522    6.82103853    4.38128381
 Si                13.54123268    7.17700694    2.46086352
 Si                14.63235390    6.46944270   12.79115654
 Si                17.79222173    6.81129958   12.82422586
 Si                18.72280741    7.51309995    2.22524467
 Si                16.28314764    6.21682637    3.95004931
 O                 17.51478750    9.17011205    9.84918787
 O                 15.77191602    8.66130181    7.53766963
 O                 13.81486370    8.85608073    6.29930390
 O                 11.72990340    8.96758173    7.71888413
 O                 12.46532431    8.85965830   10.43016768
 O                 14.95762852    8.76346137    9.66837341
 O                 17.35024858   12.74708779   10.23721891
 O                 16.07697357   13.02415087    7.60180810
 O                 13.98921090   13.01540569    6.27036826
 O                 11.90865432   13.42503768    7.89569827
 O                 12.27116038   12.85858878   10.21335034
 O                 14.85314031   13.04482128    9.83838701
 O                 16.32998719   10.74662878    8.89724506
 O                 11.75812723   10.96565569    9.22647139
 O                 18.08046509    7.30261947   11.58479338
 O                 18.62712663    9.78306939   12.52566864
 O                 17.98018043   12.50281912   12.39725837
 O                 13.72378681    7.56159593   11.77440854
 O                 13.71457903    9.93770000   11.90255213
 O                 13.79204444   12.53203596   12.01309430
 O                  9.99083513    8.70125137    9.51462778
 O                 10.05068566   13.38131180    9.71264362
 Si                18.51883520    8.95744527   11.07208570
 Si                16.23911046    9.39291529    8.86630925
 Si                15.37257886    8.59114165    6.21329702
 Si                12.41868493    8.55258337    6.18782832
 Si                11.49330364    9.15202544    9.26367437
 Si                14.53427109    8.76246760   11.16262627
 Si                18.89735478   13.05436147   11.04848381
 Si                16.48411732   12.69839306    9.12806352
 Si                15.39299610   13.40595730    6.12395654
 Si                12.23312827   13.06410042    6.15702586
 Si                11.30254258   12.36230005    8.89244467
 Si                13.74220236   13.65857363   10.61724931
 O                 12.51056250   19.10781205    3.18198787
 O                 14.25343398   18.59900181    0.87046963
 O                 16.21048630   18.79378073   12.96650390
 O                 18.29544660   18.90528173    1.05168413
 O                 17.56002569   18.79735830    3.76296768
 O                 15.06772148   18.70116137    3.00117341
 O                 12.67510142    2.80938779    3.57001891
 O                 13.94837643    3.08645087    0.93460810
 O                 16.03613910    3.07770569   12.93756826
 O                 18.11669568    3.48733768    1.22849827
 O                 17.75418962    2.92088878    3.54615034
 O                 15.17220969    3.10712128    3.17118701
 O                 13.69536281    0.80892878    2.23004506
 O                 18.26722277    1.02795569    2.55927139
 O                 11.94488491   17.24031947    4.91759338
 O                 11.39822337   19.72076939    5.85846864
 O                 12.04516957    2.56511912    5.73005837
 O                 16.30156319   17.49929593    5.10720854
 O                 16.31077096    0.00000000    5.23535213
 O                 16.23330556    2.59433596    5.34589430
 O                  0.01761487   18.63895137    2.84742778
 O                 19.97466434    3.44361180    3.04544362
 Si                11.50651480   18.89514527    4.40488570
 Si                13.78623954   19.33061529    2.19910925
 Si                14.65277114   18.52884165   12.88049702
 Si                17.60666507   18.49028337   12.85502832
 Si                18.53204636   19.08972544    2.59647437
 Si                15.49107891   18.70016760    4.49542627
 Si                11.12799522    3.11666147    4.38128381
 Si                13.54123268    2.76069306    2.46086352
 Si                14.63235390    3.46825730   12.79115654
 Si                17.79222173    3.12640042   12.82422586
 Si                18.72280741    2.42460005    2.22524467
 Si                16.28314764    3.72087363    3.95004931
 O                 17.51478750    0.76758795    9.84918787
 O                 15.77191602    1.27639819    7.53766963
 O                 13.81486370    1.08161927    6.29930390
 O                 11.72990340    0.97011827    7.71888413
 O                 12.46532431    1.07804170   10.43016768
 O                 14.95762852    1.17423863    9.66837341
 O                 17.35024858   17.06601221   10.23721891
 O                 16.07697357   16.78894913    7.60180810
 O                 13.98921090   16.79769431    6.27036826
 O                 11.90865432   16.38806232    7.89569827
 O                 12.27116038   16.95451122   10.21335034
 O                 14.85314031   16.76827872    9.83838701
 O                 16.32998719   19.06647122    8.89724506
 O                 11.75812723   18.84744431    9.22647139
 O                 18.08046509    2.63508053   11.58479338
 O                 18.62712663    0.15463061   12.52566864
 O                 17.98018043   17.31028088   12.39725837
 O                 13.72378681    2.37610407   11.77440854
 O                 13.71457903   19.87540000   11.90255213
 O                 13.79204444   17.28106404   12.01309430
 O                  9.99083513    1.23644863    9.51462778
 O                 10.05068566   16.43178820    9.71264362
 Si                18.51883520    0.98025473   11.07208570
 Si                16.23911046    0.54478471    8.86630925
 Si                15.37257886    1.34655835    6.21329702
 Si                12.41868493    1.38511663    6.18782832
 Si                11.49330364    0.78567456    9.26367437
 Si                14.53427109    1.17523240   11.16262627
 Si                18.89735478   16.75873853   11.04848381
 Si                16.48411732   17.11470694    9.12806352
 Si                15.39299610   16.40714270    6.12395654
 Si                12.23312827   16.74899958    6.15702586
 Si                11.30254258   17.45079995    8.89244467
 Si                13.74220236   16.15452637   10.61724931
 O                  7.50633750    9.17011205   10.15241213
 O                  5.76346602    8.66130181   12.46393037
 O                  3.80641370    8.85608073    0.36789610
 O                  1.72145340    8.96758173   12.28271587
 O                  2.45687431    8.85965830    9.57143232
 O                  4.94917853    8.76346137   10.33322659
 O                  7.34179858   12.74708779    9.76438109
 O                  6.06852357   13.02415087   12.39979190
 O                  3.98076090   13.01540569    0.39683174
 O                  1.90020432   13.42503768   12.10590173
 O                  2.26271038   12.85858878    9.78824966
 O                  4.84469031   13.04482128   10.16321299
 O                  6.32153719   10.74662878   11.10435494
 O                  1.74967723   10.96565569   10.77512861
 O                  8.07201509    7.30261947    8.41680662
 O                  8.61867663    9.78306939    7.47593136
 O                  7.97173043   12.50281912    7.60434163
 O                  3.70612904    9.93770000    8.09904787
 O                  3.78359444   12.53203596    7.98850570
 O                 19.99928513    8.70125137   10.48697222
 O                  0.04223566   13.38131180   10.28895638
 Si                 8.51038520    8.95744527    8.92951430
 Si                 6.23066046    9.39291529   11.13529075
 Si                 5.36412886    8.59114165    0.45390298
 Si                 2.41023493    8.55258337    0.47937168
 Si                 1.48485364    9.15202544   10.73792563
 Si                 4.52582109    8.76246760    8.83897373
 Si                 8.88890478   13.05436147    8.95311619
 Si                 6.47566732   12.69839306   10.87353648
 Si                 5.38454610   13.40595730    0.54324346
 Si                 2.22467827   13.06410042    0.51017414
 Si                 1.29409259   12.36230005   11.10915533
 Si                 3.73375236   13.65857363    9.38435069
 O                  2.50211250   10.70528795    3.48521213
 O                  4.24498398   11.21409819    5.79673037
 O                  6.20203630   11.01931927    7.03509610
 O                  8.28699660   10.90781827    5.61551587
 O                  7.55157569   11.01574170    2.90423232
 O                  5.05927147   11.11193863    3.66602659
 O                  2.66665142    7.12831221    3.09718109
 O                  3.93992643    6.85124913    5.73259190
 O                  6.02768910    6.85999431    7.06403174
 O                  8.10824568    6.45036232    5.43870173
 O                  7.74573962    7.01681122    3.12104966
 O                  5.16375969    6.83057872    3.49601299
 O                  3.68691281    9.12877122    4.43715494
 O                  8.25877277    8.90974431    4.10792861
 O                  1.93643491   12.57278053    1.74960662
 O                  1.38977337   10.09233061    0.80873136
 O                  2.03671957    7.37258088    0.93714163
 O                  6.29311319   12.31380407    1.55999146
 O                  6.30232096    9.93770000    1.43184787
 O                  6.22485556    7.34336404    1.32130570
 O                 10.02606487   11.17414863    3.81977222
 O                  9.96621434    6.49408820    3.62175638
 Si                 1.49806480   10.91795473    2.26231430
 Si                 3.77778954   10.48248471    4.46809075
 Si                 4.64432114   11.28425835    7.12110298
 Si                 7.59821507   11.32281663    7.14657168
 Si                 8.52359636   10.72337456    4.07072563
 Si                 5.48262891   11.11293240    2.17177373
 Si                 1.11954522    6.82103853    2.28591619
 Si                 3.53278268    7.17700694    4.20633648
 Si                 4.62390390    6.46944270    7.21044346
 Si                 7.78377173    6.81129958    7.17737414
 Si                 8.71435742    7.51309995    4.44195533
 Si                 6.27469764    6.21682637    2.71715069
 O                  8.56242914   14.90655000    8.56308499
 O                  3.88067640   14.90655000    8.74216598
 O                  6.03089180   14.90655000    0.72352454
 O                  2.33677291   14.90655000    0.96034349
 O                  1.44602086    4.96885000    1.89588499
 O                  6.12777360    4.96885000    2.07496598
 O                  3.97755820    4.96885000    7.39072454
 O                  7.67167709    4.96885000    7.62754349
 O                 11.45447086    4.96885000    4.77131501
 O                 16.13622360    4.96885000    4.59223402
 O                 13.98600820    4.96885000   12.61087546
 O                 17.68012709    4.96885000   12.37405651
 O                 18.57087914   14.90655000   11.43851501
 O                 13.88912640   14.90655000   11.25943402
 O                 16.03934180   14.90655000    5.94367546
 O                 12.34522291   14.90655000    5.70685651
 O                  3.71533681    7.56159593    8.22719146
 Si                12.04516957    7.37258088    5.73005837
 Tv                20.01690000    0.00000000    0.00000000
 Tv                 0.00000000   19.87540000    0.00000000
 Tv                 0.00000000    0.00000000   13.33440000


